*Heading
** Reconstructed paper-consistent cyclic dogbone RNO model
** SI units: m, kg, s, Pa, K
** Axial direction is global 3; report S33, not S11.
*Preprint, echo=NO, model=NO, history=NO, contact=NO
*Part, name=DOGBONE
*Node
1, -5.000000000000e-04, -2.500000000000e-03, 0.000000000000e+00
2, 0.000000000000e+00, -2.500000000000e-03, 0.000000000000e+00
3, 5.000000000000e-04, -2.500000000000e-03, 0.000000000000e+00
4, -5.000000000000e-04, -1.666666666667e-03, 0.000000000000e+00
5, 0.000000000000e+00, -1.666666666667e-03, 0.000000000000e+00
6, 5.000000000000e-04, -1.666666666667e-03, 0.000000000000e+00
7, -5.000000000000e-04, -8.333333333333e-04, 0.000000000000e+00
8, 0.000000000000e+00, -8.333333333333e-04, 0.000000000000e+00
9, 5.000000000000e-04, -8.333333333333e-04, 0.000000000000e+00
10, -5.000000000000e-04, 0.000000000000e+00, 0.000000000000e+00
11, 0.000000000000e+00, 0.000000000000e+00, 0.000000000000e+00
12, 5.000000000000e-04, 0.000000000000e+00, 0.000000000000e+00
13, -5.000000000000e-04, 8.333333333333e-04, 0.000000000000e+00
14, 0.000000000000e+00, 8.333333333333e-04, 0.000000000000e+00
15, 5.000000000000e-04, 8.333333333333e-04, 0.000000000000e+00
16, -5.000000000000e-04, 1.666666666667e-03, 0.000000000000e+00
17, 0.000000000000e+00, 1.666666666667e-03, 0.000000000000e+00
18, 5.000000000000e-04, 1.666666666667e-03, 0.000000000000e+00
19, -5.000000000000e-04, 2.500000000000e-03, 0.000000000000e+00
20, 0.000000000000e+00, 2.500000000000e-03, 0.000000000000e+00
** ... 1177 like lines cut
*Element, type=C3D8RT, elset=ALL_ELEMENTS
1, 1, 2, 5, 4, 22, 23, 26, 25
2, 2, 3, 6, 5, 23, 24, 27, 26
3, 4, 5, 8, 7, 25, 26, 29, 28
4, 5, 6, 9, 8, 26, 27, 30, 29
5, 7, 8, 11, 10, 28, 29, 32, 31
6, 8, 9, 12, 11, 29, 30, 33, 32
7, 10, 11, 14, 13, 31, 32, 35, 34
8, 11, 12, 15, 14, 32, 33, 36, 35
9, 13, 14, 17, 16, 34, 35, 38, 37
10, 14, 15, 18, 17, 35, 36, 39, 38
11, 16, 17, 20, 19, 37, 38, 41, 40
12, 17, 18, 21, 20, 38, 39, 42, 41
13, 22, 23, 26, 25, 43, 44, 47, 46
14, 23, 24, 27, 26, 44, 45, 48, 47
15, 25, 26, 29, 28, 46, 47, 50, 49
16, 26, 27, 30, 29, 47, 48, 51, 50
17, 28, 29, 32, 31, 49, 50, 53, 52
18, 29, 30, 33, 32, 50, 51, 54, 53
19, 31, 32, 35, 34, 52, 53, 56, 55
20, 32, 33, 36, 35, 53, 54, 57, 56
** ... 652 like lines cut
*Nset, nset=ALL_NODES, generate
1, 1197, 1
*Nset, nset=BOTTOM
1, 2, 3, 4, 5, 6, 7, 8, 9, 10, 11, 12, 13, 14, 15, 16
17, 18, 19, 20, 21
*Nset, nset=TOP
1177, 1178, 1179, 1180, 1181, 1182, 1183, 1184, 1185, 1186, 1187, 1188, 1189, 1190, 1191, 1192
1193, 1194, 1195, 1196, 1197
*Nset, nset=GAUGE
295, 296, 297, 298, 299, 300, 301, 302, 303, 304, 305, 306, 307, 308, 309, 310
311, 312, 313, 314, 315, 316, 317, 318, 319, 320, 321, 322, 323, 324, 325, 326
327, 328, 329, 330, 331, 332, 333, 334, 335, 336, 337, 338, 339, 340, 341, 342
343, 344, 345, 346, 347, 348, 349, 350, 351, 352, 353, 354, 355, 356, 357, 358
359, 360, 361, 362, 363, 364, 365, 366, 367, 368, 369, 370, 371, 372, 373, 374
375, 376, 377, 378, 379, 380, 381, 382, 383, 384, 385, 386, 387, 388, 389, 390
391, 392, 393, 394, 395, 396, 397, 398, 399, 400, 401, 402, 403, 404, 405, 406
407, 408, 409, 410, 411, 412, 413, 414, 415, 416, 417, 418, 419, 420, 421, 422
423, 424, 425, 426, 427, 428, 429, 430, 431, 432, 433, 434, 435, 436, 437, 438
439, 440, 441, 442, 443, 444, 445, 446, 447, 448, 449, 450, 451, 452, 453, 454
455, 456, 457, 458, 459, 460, 461, 462, 463, 464, 465, 466, 467, 468, 469, 470
471, 472, 473, 474, 475, 476, 477, 478, 479, 480, 481, 482, 483, 484, 485, 486
487, 488, 489, 490, 491, 492, 493, 494, 495, 496, 497, 498, 499, 500, 501, 502
503, 504, 505, 506, 507, 508, 509, 510, 511, 512, 513, 514, 515, 516, 517, 518
519, 520, 521, 522, 523, 524, 525, 526, 527, 528, 529, 530, 531, 532, 533, 534
535, 536, 537, 538, 539, 540, 541, 542, 543, 544, 545, 546, 547, 548, 549, 550
551, 552, 553, 554, 555, 556, 557, 558, 559, 560, 561, 562, 563, 564, 565, 566
567, 568, 569, 570, 571, 572, 573, 574, 575, 576, 577, 578, 579, 580, 581, 582
583, 584, 585, 586, 587, 588, 589, 590, 591, 592, 593, 594, 595, 596, 597, 598
599, 600, 601, 602, 603, 604, 605, 606, 607, 608, 609, 610, 611, 612, 613, 614
** ... 19 like lines cut
*Solid Section, elset=ALL_ELEMENTS, material=POLYUREA_RNO
,
*End Part
*Assembly, name=ASSEMBLY
*Instance, name=DOGBONE-1, part=DOGBONE
*End Instance
*End Assembly
*Material, name=POLYUREA_RNO
*Density
1120.
*Specific Heat
1500.
*Conductivity
0.19
*Inelastic Heat Fraction
0.9
*Depvar
33,
*User Material, constants=9
2.82e9, 0.286, 0., 0., 0., 0., 0., 6.0e-5
1.0
*Initial Conditions, type=TEMPERATURE
DOGBONE-1.ALL_NODES, 300.
*Boundary
DOGBONE-1.BOTTOM, 1, 3, 0.
*Amplitude, name=CYCLIC_DISPLACEMENT, definition=TABULAR, time=TOTAL TIME
0.000000000000e+00, 0.000000000000e+00
1.000000000000e-07, 1.933592837090e-04
2.000000000000e-07, 1.536593384701e-03
3.000000000000e-07, 5.128596085677e-03
4.000000000000e-07, 1.196825882541e-02
5.000000000000e-07, 2.290929699950e-02
6.000000000000e-07, 3.862067065853e-02
7.000000000000e-07, 5.955414111006e-02
8.000000000000e-07, 8.592024285086e-02
9.000000000000e-07, 1.176736408075e-01
1.000000000000e-06, 1.545084971875e-01
1.100000000000e-06, 1.958641027939e-01
1.200000000000e-06, 2.409406477555e-01
1.300000000000e-06, 2.887246299873e-01
1.400000000000e-06, 3.380230399393e-01
1.500000000000e-06, 3.875051303498e-01
1.600000000000e-06, 4.357502917763e-01
1.700000000000e-06, 4.813003191330e-01
1.800000000000e-06, 5.227141799747e-01
1.900000000000e-06, 5.586232882995e-01
** ... 581 like lines cut
*Step, name=CYCLIC, nlgeom=YES
*Dynamic, Explicit
, 6.0e-5
*Bulk Viscosity
0.06, 1.2
*Boundary, amplitude=CYCLIC_DISPLACEMENT
DOGBONE-1.TOP, 3, 3, 2.0e-5
*Output, field, time interval=1.0e-6
*Node Output
U, V, A, RF, NT
*Element Output, directions=YES
S, LE, SDV, TEMP, ENER
*Output, history, time interval=1.0e-7
*Energy Output
ALLIE, ALLKE, ALLSE, ALLPD, ALLWK, ETOTAL
*Node Output, nset=DOGBONE-1.TOP
U3, RF3, NT
*Node Output, nset=DOGBONE-1.GAUGE
U3, NT
*End Step
