*HEADING
** Cyclic loading of polyurea dogbone (40 x 5 x 1 mm)
** Material: RNO atomistic surrogate (user subroutine vumat_rno.for)
** Units: SI (m, kg, s, Pa, K). Initial temperature 300 K.
** Geometry/mesh/BC per Sohail, Liu & Ghosh (2026), Sec. 4.
*PART, NAME=DOGBONE
*NODE
1, 0.000000e+00, -2.500000e-03, 0.000000e+00
2, 5.000000e-04, -2.500000e-03, 0.000000e+00
3, 1.000000e-03, -2.500000e-03, 0.000000e+00
4, 0.000000e+00, -1.666667e-03, 0.000000e+00
5, 5.000000e-04, -1.666667e-03, 0.000000e+00
6, 1.000000e-03, -1.666667e-03, 0.000000e+00
7, 0.000000e+00, -8.333333e-04, 0.000000e+00
8, 5.000000e-04, -8.333333e-04, 0.000000e+00
9, 1.000000e-03, -8.333333e-04, 0.000000e+00
10, 0.000000e+00, 0.000000e+00, 0.000000e+00
11, 5.000000e-04, 0.000000e+00, 0.000000e+00
12, 1.000000e-03, 0.000000e+00, 0.000000e+00
13, 0.000000e+00, 8.333333e-04, 0.000000e+00
14, 5.000000e-04, 8.333333e-04, 0.000000e+00
15, 1.000000e-03, 8.333333e-04, 0.000000e+00
16, 0.000000e+00, 1.666667e-03, 0.000000e+00
17, 5.000000e-04, 1.666667e-03, 0.000000e+00
18, 1.000000e-03, 1.666667e-03, 0.000000e+00
19, 0.000000e+00, 2.500000e-03, 0.000000e+00
20, 5.000000e-04, 2.500000e-03, 0.000000e+00
** ... 1177 like lines cut
*ELEMENT, TYPE=C3D8RT, ELSET=ALLEL
1, 1, 2, 5, 4, 22, 23, 26, 25
2, 2, 3, 6, 5, 23, 24, 27, 26
3, 4, 5, 8, 7, 25, 26, 29, 28
4, 5, 6, 9, 8, 26, 27, 30, 29
5, 7, 8, 11, 10, 28, 29, 32, 31
6, 8, 9, 12, 11, 29, 30, 33, 32
7, 10, 11, 14, 13, 31, 32, 35, 34
8, 11, 12, 15, 14, 32, 33, 36, 35
9, 13, 14, 17, 16, 34, 35, 38, 37
10, 14, 15, 18, 17, 35, 36, 39, 38
11, 16, 17, 20, 19, 37, 38, 41, 40
12, 17, 18, 21, 20, 38, 39, 42, 41
13, 22, 23, 26, 25, 43, 44, 47, 46
14, 23, 24, 27, 26, 44, 45, 48, 47
15, 25, 26, 29, 28, 46, 47, 50, 49
16, 26, 27, 30, 29, 47, 48, 51, 50
17, 28, 29, 32, 31, 49, 50, 53, 52
18, 29, 30, 33, 32, 50, 51, 54, 53
19, 31, 32, 35, 34, 52, 53, 56, 55
20, 32, 33, 36, 35, 53, 54, 57, 56
** ... 652 like lines cut
*NSET, NSET=BOTTOM
1, 2, 3, 4, 5, 6, 7, 8, 9, 10, 11, 12
13, 14, 15, 16, 17, 18, 19, 20, 21
*NSET, NSET=TOP
1177, 1178, 1179, 1180, 1181, 1182, 1183, 1184, 1185, 1186, 1187, 1188
1189, 1190, 1191, 1192, 1193, 1194, 1195, 1196, 1197
*NSET, NSET=GAUGE_MID
589, 590, 591, 592, 593, 594, 595, 596, 597, 598, 599, 600
601, 602, 603, 604, 605, 606, 607, 608, 609
*NSET, NSET=ALLN, GENERATE
1, 1197, 1
*ELSET, ELSET=GAUGE, GENERATE
181, 492, 1
*SOLID SECTION, ELSET=ALLEL, MATERIAL=POLYUREA_RNO
,
*END PART
*MATERIAL, NAME=POLYUREA_RNO
*DENSITY
1120.0,
*SPECIFIC HEAT
1500.0,
*CONDUCTIVITY
0.19,
**  USER MATERIAL constants: E_eff, nu_eff (stable-dt estimate only),
**  T_ref, n_xi, beta_TQ, rho, cp, flag_transfer_learning_temp
*USER MATERIAL, CONSTANTS=8
2.8200e+09, 0.286, 300.0, 25, 0.9, 1120.0, 1500.0, 0
*INELASTIC HEAT FRACTION
0.9,
*DEPVAR
40
*ASSEMBLY, NAME=ASM
*INSTANCE, NAME=DB, PART=DOGBONE
*END INSTANCE
*NODE, NSET=RP_TOP
900001, 0.0005, 0.0, 0.040
*NODE, NSET=RP_BOT
900002, 0.0005, 0.0, 0.0
** distributing couplings tie each end face to its reference point (Sec. 4.1)
*SURFACE, TYPE=NODE, NAME=TOP_NS
DB.TOP,
*SURFACE, TYPE=NODE, NAME=BOT_NS
DB.BOTTOM,
*COUPLING, CONSTRAINT NAME=CPL_TOP, REF NODE=900001, SURFACE=TOP_NS
*DISTRIBUTING
*COUPLING, CONSTRAINT NAME=CPL_BOT, REF NODE=900002, SURFACE=BOT_NS
*DISTRIBUTING
*END ASSEMBLY
*INITIAL CONDITIONS, TYPE=TEMPERATURE
DB.ALLN, 300.0
** amplitude: 3 sinusoidal cycles, period 20 us, 2 us cosine ramp (Fig. 7)
*AMPLITUDE, NAME=SINE3, DEFINITION=TABULAR
0.000e+00, 0.00000, 2.500e-07, 0.00299, 5.000e-07, 0.02291, 7.500e-07, 0.07205
1.000e-06, 0.15451, 1.250e-06, 0.26457, 1.500e-06, 0.38751, 1.750e-06, 0.50261
2.000e-06, 0.58779, 2.250e-06, 0.64945, 2.500e-06, 0.70711, 2.750e-06, 0.76041
3.000e-06, 0.80902, 3.250e-06, 0.85264, 3.500e-06, 0.89101, 3.750e-06, 0.92388
4.000e-06, 0.95106, 4.250e-06, 0.97237, 4.500e-06, 0.98769, 4.750e-06, 0.99692
5.000e-06, 1.00000, 5.250e-06, 0.99692, 5.500e-06, 0.98769, 5.750e-06, 0.97237
6.000e-06, 0.95106, 6.250e-06, 0.92388, 6.500e-06, 0.89101, 6.750e-06, 0.85264
7.000e-06, 0.80902, 7.250e-06, 0.76041, 7.500e-06, 0.70711, 7.750e-06, 0.64945
8.000e-06, 0.58779, 8.250e-06, 0.52250, 8.500e-06, 0.45399, 8.750e-06, 0.38268
9.000e-06, 0.30902, 9.250e-06, 0.23345, 9.500e-06, 0.15643, 9.750e-06, 0.07846
1.000e-05, 0.00000, 1.025e-05, -0.07846, 1.050e-05, -0.15643, 1.075e-05, -0.23345
1.100e-05, -0.30902, 1.125e-05, -0.38268, 1.150e-05, -0.45399, 1.175e-05, -0.52250
1.200e-05, -0.58779, 1.225e-05, -0.64945, 1.250e-05, -0.70711, 1.275e-05, -0.76041
1.300e-05, -0.80902, 1.325e-05, -0.85264, 1.350e-05, -0.89101, 1.375e-05, -0.92388
1.400e-05, -0.95106, 1.425e-05, -0.97237, 1.450e-05, -0.98769, 1.475e-05, -0.99692
1.500e-05, -1.00000, 1.525e-05, -0.99692, 1.550e-05, -0.98769, 1.575e-05, -0.97237
1.600e-05, -0.95106, 1.625e-05, -0.92388, 1.650e-05, -0.89101, 1.675e-05, -0.85264
1.700e-05, -0.80902, 1.725e-05, -0.76041, 1.750e-05, -0.70711, 1.775e-05, -0.64945
1.800e-05, -0.58779, 1.825e-05, -0.52250, 1.850e-05, -0.45399, 1.875e-05, -0.38268
1.900e-05, -0.30902, 1.925e-05, -0.23345, 1.950e-05, -0.15643, 1.975e-05, -0.07846
** ... 41 like lines cut
*BOUNDARY
900002, 1, 6, 0.0
900001, 1, 2, 0.0
900001, 4, 6, 0.0
*STEP, NAME=CYCLIC, NLGEOM=YES
*DYNAMIC TEMPERATURE-DISPLACEMENT, EXPLICIT
, 6.0E-05
*BULK VISCOSITY
0.06, 1.2
*BOUNDARY, AMPLITUDE=SINE3
900001, 3, 3, 2.0000e-05
*OUTPUT, FIELD, NUMBER INTERVAL=60
*NODE OUTPUT
U, V, NT
*ELEMENT OUTPUT, ELSET=DB.ALLEL
S, LE, SDV, TEMP
*OUTPUT, HISTORY, TIME INTERVAL=1.0E-7
*NODE OUTPUT, NSET=RP_TOP
U3, RF3
*ENERGY OUTPUT
ALLWK, ALLIE, ALLPD, ALLSE, ALLKE
*END STEP
